LTspice 26.0.1 for Windows
Circuit: C:\Users\Tuan Quang Lien\Documents\GitHub\My-Project\Ai Sipder Bot Power System\PSpice And LTspice For Ti LM5116 Design Schematic\LM5116 LTspice Simulation.net
Start Time: Tue Jul  7 22:43:56 2026
Options:method=gear reltol=0.03 abstol=1e-6 vntol=1e-3 chgtol=1e-9 gmin=1e-6 cshunt=1e-12 method=gear
solver = Normal
Maximum thread count: 16
tnom = 27
temp = 27
method = Gear
gmin = 1e-06
abstol = 1e-06
reltol = 0.03
chgtol = 1e-09
volttol = 0.001
C4: Increased Cpar to 1e-16
C20: Increased Cpar to 3.3e-14
C6: Increased Cpar to 1e-16
WARNING: Node n006 is floating.

Warning: Pd = 0 is less than W.
Warning: Ps = 0 is less than W.
d_d4: Emission coefficient, N=1e-06, too small, this might lead to numerical problems.
d_d1: Emission coefficient, N=0.001, too small, this might lead to numerical problems.
dd: Emission coefficient, N=0.001, too small, this might lead to numerical problems.
dclp: Emission coefficient, N=0.001, too small, this might lead to numerical problems.
Direct Newton iteration succeeded in finding operating point.

Simulation stopped by user.
Total elapsed time: 25.675 seconds.

Files loaded:
C:\Users\Tuan Quang Lien\Documents\GitHub\My-Project\Ai Sipder Bot Power System\PSpice And LTspice For Ti LM5116 Design Schematic\LM5116 LTspice Simulation.net
C:\Users\Tuan Quang Lien\AppData\Local\LTspice\lib\cmp\standard.dio
C:\Users\Tuan Quang Lien\AppData\Local\LTspice\lib\cmp\standard.mos
C:\Users\Tuan Quang Lien\Documents\LTspice\LM5116_TRANS_LT.lib

